@<TRIPOS>MOLECULE
TMP
   11   10    1    0    0
SMALL
NO_CHARGES
****
Energy = 0

@<TRIPOS>ATOM
      1  C          0.0000    0.0000    0.0000    C    1  TMP        0.000000
      2  C         -1.5000    0.0000    0.0000    C    1  TMP        0.000000
      3  C         -2.2000    1.2124    0.0000    C    1  TMP        0.000000
      4  O          0.7000   -1.2124   -0.0000    O    1  TMP        0.000000
      5  O          0.7710    1.1685    0.0000    O    1  TMP        0.000000
      6  H         -1.8198   -0.4847   -0.8141    H    1  TMP        0.000000
      7  H         -1.8198   -0.4847    0.8141    H    1  TMP        0.000000
      8  H         -1.5440    1.9671    0.0000    H    1  TMP        0.000000
      9  H         -2.7722    1.2580   -0.8188    H    1  TMP        0.000000
     10  H         -2.7722    1.2580    0.8188    H    1  TMP        0.000000
     11  H          1.7395    0.9195    0.0000    H    1  TMP        0.000000
@<TRIPOS>BOND
    1     1     2  1
    2     1     4  2
    3     1     5  1
    4     2     3  1
    5     2     6  1
    6     2     7  1
    7     3     8  1
    8     3     9  1
    9     3    10  1
   10     5    11  1

@<TRIPOS>SUBSTRUCTURE
1 ****        1 TEMP                        0 ****  **** 0 ROOT

#generated by VMD
