@<TRIPOS>MOLECULE
NDE
   10    9    1    0    0
SMALL
NO_CHARGES
****
Energy = 0

@<TRIPOS>ATOM
      1  _CH3         0.676     16.151    31.254    C    1  NDE        0.000000
      2  _CH3         1.949     15.292    31.360    C    1  NDE        0.000000

@<TRIPOS>BOND
    1     1     2  1

@<TRIPOS>SUBSTRUCTURE
1 ****        1 TEMP                        0 ****  **** 0 ROOT

#generated by VMD
