@<TRIPOS>MOLECULE
CHX
    6    6    1    0    0
SMALL
NO_CHARGES
****
Energy = 0

@<TRIPOS>ATOM
      1  _CH2      0.00000   0.00000   0.00000    C    1  CHX        0.000000
      2  _CH2      1.54000   0.00000   0.00000    C    1  CHX        0.000000
      3  _CH2      2.31000   1.33368   0.00000    C    1  CHX        0.000000
      4  _CH2      1.54000   2.66736   0.00000    C    1  CHX        0.000000
      5  _CH2      0.00000   2.66736   0.00000    C    1  CHX        0.000000
      6  _CH2     -0.77000   1.33368   0.00000    C    1  CHX        0.000000
@<TRIPOS>BOND
    1     1     2  1
    2     1     6  1
    3     2     3  1
    4     3     4  1
    5     4     5  1
    6     5     6  1

@<TRIPOS>SUBSTRUCTURE
1 ****        1 TEMP                        0 ****  **** 0 ROOT

#generated by VMD
