@<TRIPOS>MOLECULE
ETO
   4    3    1    0    0
SMALL
NO_CHARGES
****
Energy = 0

@<TRIPOS>ATOM
      1  _CH3         2.066     2.069     71.875    C    1  ETO        0.000000
      2  _CH2         1.329     1.004     71.089    C    1  ETO        0.000000
      3  O            0.000     0.877     71.574    O    1  ETO        0.000000
      4  H            0.053     0.625     72.512    H    1  ETO        0.000000

@<TRIPOS>BOND
    1     1     2  1
    2     2     3  1
    3     3     4  1

@<TRIPOS>SUBSTRUCTURE
1 ****        1 TEMP                        0 ****  **** 0 ROOT

#generated by VMD

