@<TRIPOS>MOLECULE
NDE
   10    9    1    0    0
SMALL
NO_CHARGES
****
Energy = 0

@<TRIPOS>ATOM
      1  _CH3         2.720    60.453    21.801     C    1  DEC        0.000000
      2  _CH2         2.206    59.866    20.474     C    1  DEC        0.000000
      3  _CH2         3.333    59.735    19.432     C    1  DEC        0.000000
      4  _CH2         4.648    59.109    19.934     C    1  DEC        0.000000
      5  _CH2         5.705    59.071    18.815     C    1  DEC        0.000000
      6  _CH2         5.096    58.167    17.728     C    1  DEC        0.000000
      7  _CH2         4.621    56.755    18.120     C    1  DEC        0.000000
      8  _CH2         3.375    56.381    17.296     C    1  DEC        0.000000
      9  _CH2         3.458    56.656    15.783     C    1  DEC        0.000000
     10  _CH3         2.046    56.215    15.352     C    1  DEC        0.000000
@<TRIPOS>BOND
    1     1     2  1
    2     2     3  1
    3     3     4  1
    4     4     5  1
    5     5     6  1
    6     6     7  1
    7     7     8  1
    8     8     9  1
    9     9    10  1

@<TRIPOS>SUBSTRUCTURE
1 ****        1 TEMP                        0 ****  **** 0 ROOT

#generated by VMD
