@<TRIPOS>MOLECULE
TIP4
    4    3    1    0    0
SMALL
NO_CHARGES
****
Energy = 0

@<TRIPOS>ATOM
      1  O         0.00000   0.00000   0.00000    O    1  TIP4       0.000000
      2  H        -0.75695   0.58588   0.00000    H    1  TIP4       0.000000
      3  H         0.75695   0.58588   0.00000    H    1  TIP4       0.000000
      4  _LP       0.00000   0.15460   0.00000    H    1  TIP4       0.000000
@<TRIPOS>BOND
    1     1     3  1
    2     1     2  1
    3     1     4  1

@<TRIPOS>SUBSTRUCTURE
1 ****        1 TEMP                        0 ****  **** 0 ROOT

#generated by VMD
# note: when loaded in mbuild it may have a MW of ~19 as the Lone pair needs to have a element associated with it, so it was make hydrogen.  
