@<TRIPOS>MOLECULE
TPR
    5    4    1    0    0
SMALL
NO_CHARGES
****
Energy = 0

@<TRIPOS>ATOM
      1  _CH3       0.0000    0.0000    0.0000    C    1  TPR        0.000000
      2  _HC       -1.5000    0.0000    0.0000    C    1  TPR        0.000000
      3  _CH3      -2.2500    1.2990    0.0000    C    1  TPR        0.000000
      4  O         -2.2000   -1.2124   -0.0000    O    1  TPR        0.000000
      5  H         -1.5439   -1.9671    0.0000    H    1  TPR        0.000000
@<TRIPOS>BOND
    1     1     2  1
    2     2     3  1
    3     2     4  1
    4     4     5  1

@<TRIPOS>SUBSTRUCTURE
1 ****        1 TEMP                        0 ****  **** 0 ROOT

#generated by VMD
