@<TRIPOS>MOLECULE
TMP
    8    7    1    0    0
SMALL
NO_CHARGES
****
Energy = 0

@<TRIPOS>ATOM
      1  C          0.0000    0.0000    0.0000    C    1  TMP        0.000000
      2  C         -1.5000    0.0000    0.0000    C    1  TMP        0.000000
      3  H          0.3256   -0.9455    0.0000    H    1  TMP        0.000000
      4  H          0.3256    0.4728   -0.8188    H    1  TMP        0.000000
      5  H          0.3256    0.4728    0.8188    H    1  TMP        0.000000
      6  H         -1.8256    0.9455   -0.0000    H    1  TMP        0.000000
      7  H         -1.8256   -0.4728   -0.8188    H    1  TMP        0.000000
      8  H         -1.8256   -0.4728    0.8188    H    1  TMP        0.000000
@<TRIPOS>BOND
    1     1     2  1
    2     1     3  1
    3     1     4  1
    4     1     5  1
    5     2     6  1
    6     2     7  1
    7     2     8  1

@<TRIPOS>SUBSTRUCTURE
1 ****        1 TEMP                        0 ****  **** 0 ROOT

#generated by VMD
